Version 4
SHEET 1 1812 708
WIRE 592 -592 560 -592
WIRE 560 -480 560 -592
WIRE 560 -480 464 -480
WIRE 576 -480 560 -480
WIRE 656 -480 656 -592
WIRE 752 -480 656 -480
WIRE 848 -480 752 -480
WIRE 464 -448 464 -480
WIRE 752 -448 752 -480
WIRE -592 -400 -608 -400
WIRE -160 -400 -256 -400
WIRE -144 -400 -160 -400
WIRE -16 -400 -64 -400
WIRE 96 -400 -16 -400
WIRE 240 -400 240 -432
WIRE 240 -400 96 -400
WIRE -352 -368 -352 -400
WIRE -208 -368 -352 -368
WIRE -864 -352 -960 -352
WIRE -848 -352 -864 -352
WIRE -720 -352 -768 -352
WIRE -608 -352 -608 -400
WIRE -608 -352 -720 -352
WIRE -256 -336 -256 -400
WIRE -208 -336 -208 -368
WIRE -1104 -320 -1104 -352
WIRE -912 -320 -1104 -320
WIRE -352 -320 -352 -368
WIRE 464 -320 464 -368
WIRE 736 -320 464 -320
WIRE 752 -320 752 -368
WIRE 752 -320 736 -320
WIRE -16 -304 -16 -400
WIRE 96 -304 96 -400
WIRE -960 -288 -960 -352
WIRE -912 -288 -912 -320
WIRE 736 -288 736 -320
WIRE -1104 -272 -1104 -320
WIRE -272 -272 -304 -272
WIRE -720 -256 -720 -352
WIRE -608 -256 -608 -352
WIRE 240 -256 240 -400
WIRE -976 -224 -1008 -224
WIRE -208 -192 -208 -208
WIRE -160 -192 -160 -400
WIRE -160 -192 -208 -192
WIRE -352 -176 -352 -240
WIRE -256 -176 -256 -208
WIRE -256 -176 -352 -176
WIRE -16 -176 -16 -240
WIRE -16 -176 -256 -176
WIRE 96 -176 96 -224
WIRE 96 -176 -16 -176
WIRE -352 -160 -352 -176
WIRE 416 -160 384 -160
WIRE -912 -144 -912 -160
WIRE -864 -144 -864 -352
WIRE -864 -144 -912 -144
WIRE -16 -144 -16 -176
WIRE -1104 -128 -1104 -192
WIRE -960 -128 -960 -160
WIRE -960 -128 -1104 -128
WIRE -720 -128 -720 -192
WIRE -720 -128 -960 -128
WIRE -608 -128 -608 -176
WIRE -608 -128 -720 -128
WIRE 240 -128 240 -176
WIRE 240 -128 176 -128
WIRE 288 -128 240 -128
WIRE -1104 -112 -1104 -128
WIRE -1008 -96 -1008 -224
WIRE -880 -96 -1008 -96
WIRE -720 -96 -720 -128
WIRE -880 -80 -880 -96
WIRE 64 -32 48 -32
WIRE 176 -32 176 -64
WIRE 176 -32 144 -32
WIRE 288 -32 288 -48
WIRE 288 -32 176 -32
WIRE 384 -32 384 -160
WIRE 384 -32 288 -32
WIRE 384 -16 384 -32
WIRE 608 0 464 0
WIRE 864 0 864 -32
WIRE 864 0 704 0
WIRE 864 16 864 0
WIRE -880 32 -880 0
WIRE 608 32 560 32
WIRE 736 32 704 32
WIRE -304 48 -304 -272
WIRE -144 48 -304 48
WIRE 80 48 -48 48
WIRE -144 80 -224 80
WIRE 0 80 -48 80
WIRE 560 80 560 32
WIRE 384 96 384 64
WIRE -224 128 -224 80
WIRE 864 144 864 96
WIRE 560 176 560 160
WIRE 736 176 736 32
WIRE 736 176 560 176
WIRE 288 192 288 -32
WIRE 288 192 240 192
WIRE 560 192 560 176
WIRE 0 208 0 80
WIRE 0 208 -224 208
WIRE 80 208 80 48
WIRE 176 208 80 208
WIRE 464 224 464 0
WIRE 464 224 240 224
WIRE -224 240 -224 208
FLAG -352 -160 0
FLAG -352 -400 com_input
IOPIN -352 -400 In
FLAG -16 -144 0
FLAG 240 -432 com_output
IOPIN 240 -432 Out
FLAG 384 96 0
FLAG 416 -160 compensator_output
IOPIN 416 -160 Out
FLAG -224 240 0
FLAG 560 192 0
FLAG 864 144 0
FLAG 864 -32 +12V
IOPIN 864 -32 Out
FLAG 208 176 +12V
IOPIN 208 176 Out
FLAG 208 240 0
FLAG -1104 -112 0
FLAG -1104 -352 input
IOPIN -1104 -352 In
FLAG -720 -96 0
FLAG -880 32 0
FLAG -592 -400 output
IOPIN -592 -400 Out
FLAG 736 -288 0
FLAG 848 -480 Compensator_circuit
SYMBOL ccm1 -240 -272 R90
SYMATTR InstName U1
SYMBOL voltage -352 -336 R0
WINDOW 3 -61 26 Left 2
WINDOW 123 -104 57 Left 2
WINDOW 39 -126 78 Left 2
SYMATTR Value 24
SYMATTR Value2 AC 1
SYMATTR SpiceLine Rser=1p
SYMATTR InstName V1
SYMBOL ind -160 -384 R270
WINDOW 0 32 56 VTop 2
WINDOW 3 5 56 VBottom 2
SYMATTR InstName L1
SYMATTR Value 50µ
SYMBOL cap -32 -304 R0
SYMATTR InstName C1
SYMATTR Value 500µ
SYMBOL res 80 -320 R0
SYMATTR InstName R1
SYMATTR Value 3
SYMBOL res 224 -272 R0
SYMATTR InstName R2
SYMATTR Value 1k
SYMBOL cap 160 -128 R0
SYMATTR InstName C2
SYMATTR Value 6.324n
SYMBOL res 272 -144 R0
SYMATTR InstName R3
SYMATTR Value 9k
SYMBOL res 160 -48 R90
WINDOW 0 0 56 VBottom 2
WINDOW 3 32 56 VTop 2
SYMATTR InstName R4
SYMATTR Value 0
SYMBOL res 368 -32 R0
SYMATTR InstName R5
SYMATTR Value 8k
SYMBOL VolDiv -112 64 M0
SYMATTR InstName U2
SYMBOL voltage -224 112 M0
SYMATTR InstName V2
SYMATTR Value 10
SYMBOL OpAmps\\LT6201 208 208 M0
SYMATTR InstName U3
SYMBOL VolDiv 640 16 M0
SYMATTR InstName U4
SYMBOL voltage 560 64 M0
SYMATTR InstName V3
SYMATTR Value 2.4
SYMBOL voltage 864 0 R0
SYMATTR InstName V4
SYMATTR Value 12
SYMBOL ccm1 -944 -224 R90
SYMATTR InstName U5
SYMBOL voltage -1104 -288 R0
WINDOW 3 -61 26 Left 2
WINDOW 123 -104 57 Left 2
WINDOW 39 -126 78 Left 2
SYMATTR Value 24
SYMATTR Value2 AC 1
SYMATTR SpiceLine Rser=1p
SYMATTR InstName V5
SYMBOL ind -864 -336 R270
WINDOW 0 32 56 VTop 2
WINDOW 3 5 56 VBottom 2
SYMATTR InstName L2
SYMATTR Value 50µ
SYMBOL cap -736 -256 R0
SYMATTR InstName C3
SYMATTR Value 500µ
SYMBOL res -624 -272 R0
SYMATTR InstName R6
SYMATTR Value 3
SYMBOL voltage -880 -96 R0
SYMATTR InstName V6
SYMATTR Value 0.5
SYMBOL res 736 -352 M180
WINDOW 0 36 76 Left 2
WINDOW 3 36 40 Left 2
SYMATTR InstName R7
SYMATTR Value 1k
SYMBOL cap 656 -608 R90
WINDOW 0 0 32 VBottom 2
WINDOW 3 32 32 VTop 2
SYMATTR InstName C4
SYMATTR Value 6.324n
SYMBOL res 672 -496 R90
WINDOW 0 0 56 VBottom 2
WINDOW 3 32 56 VTop 2
SYMATTR InstName R8
SYMATTR Value 9k
SYMBOL voltage 464 -464 M0
WINDOW 123 24 44 Left 2
WINDOW 39 0 0 Left 0
SYMATTR InstName V7
SYMATTR Value ""
SYMATTR Value2 AC 12
TEXT -1008 -496 Left 2 !.ac dec 1000 100 1600k
TEXT -1000 -464 Left 2 !.lib average.lib
TEXT -552 -728 Left 5 ;Buck Converter whole circuit
TEXT -1088 -560 Left 4 ;without compensator
TEXT -176 -576 Left 4 ;with compensator
TEXT -1224 264 Left 2 ;.tran 500m
TEXT 376 -696 Left 2 ;Compensator Circuit
RECTANGLE Normal 1104 -256 368 -672 2
