Version 4
SHEET 1 880 680
WIRE 592 16 576 16
WIRE 320 64 224 64
WIRE 336 64 320 64
WIRE 464 64 416 64
WIRE 576 64 576 16
WIRE 576 64 464 64
WIRE 80 96 80 64
WIRE 272 96 80 96
WIRE 224 128 224 64
WIRE 272 128 272 96
WIRE 80 144 80 96
WIRE 464 160 464 64
WIRE 576 160 576 64
WIRE 208 192 176 192
WIRE 272 272 272 256
WIRE 320 272 320 64
WIRE 320 272 272 272
WIRE 80 288 80 224
WIRE 224 288 224 256
WIRE 224 288 80 288
WIRE 464 288 464 224
WIRE 464 288 224 288
WIRE 576 288 576 240
WIRE 576 288 464 288
WIRE 80 304 80 288
WIRE 176 320 176 192
WIRE 304 320 176 320
WIRE 464 320 464 288
WIRE 304 336 304 320
WIRE 304 448 304 416
FLAG 80 304 0
FLAG 80 64 input
IOPIN 80 64 In
FLAG 464 320 0
FLAG 304 448 0
FLAG 592 16 output
IOPIN 592 16 Out
SYMBOL ccm1 240 192 R90
SYMATTR InstName U1
SYMBOL voltage 80 128 R0
WINDOW 3 -61 26 Left 2
WINDOW 123 -104 57 Left 2
WINDOW 39 -126 78 Left 2
SYMATTR Value 24
SYMATTR Value2 AC 1
SYMATTR SpiceLine Rser=1p
SYMATTR InstName V1
SYMBOL ind 320 80 R270
WINDOW 0 32 56 VTop 2
WINDOW 3 5 56 VBottom 2
SYMATTR InstName L1
SYMATTR Value 50µ
SYMBOL cap 448 160 R0
SYMATTR InstName C1
SYMATTR Value 500µ
SYMBOL res 560 144 R0
SYMATTR InstName R1
SYMATTR Value 3
SYMBOL voltage 304 320 R0
SYMATTR InstName V2
SYMATTR Value 0.5
TEXT -80 400 Left 2 !.ac dec 1000 100 1600k
TEXT -80 472 Left 2 ;.tran 500m
TEXT -88 440 Left 2 !.lib average.lib
TEXT 0 -72 Left 4 ;Buck Converter Without Copensator
