Version 4
SHEET 1 880 680
WIRE -272 -80 -368 -80
WIRE -256 -80 -272 -80
WIRE -128 -80 -176 -80
WIRE -16 -80 -128 -80
WIRE 128 -80 128 -112
WIRE 128 -80 -16 -80
WIRE -464 -48 -464 -80
WIRE -320 -48 -464 -48
WIRE -368 -16 -368 -80
WIRE -320 -16 -320 -48
WIRE -464 0 -464 -48
WIRE -128 16 -128 -80
WIRE -16 16 -16 -80
WIRE -384 48 -416 48
WIRE 128 64 128 -80
WIRE -320 128 -320 112
WIRE -272 128 -272 -80
WIRE -272 128 -320 128
WIRE -464 144 -464 80
WIRE -368 144 -368 112
WIRE -368 144 -464 144
WIRE -128 144 -128 80
WIRE -128 144 -368 144
WIRE -16 144 -16 96
WIRE -16 144 -128 144
WIRE -464 160 -464 144
WIRE 304 160 272 160
WIRE -128 176 -128 144
WIRE 128 192 128 144
WIRE 128 192 64 192
WIRE 176 192 128 192
WIRE -48 288 -64 288
WIRE 64 288 64 256
WIRE 64 288 32 288
WIRE 176 288 176 272
WIRE 176 288 64 288
WIRE 272 288 272 160
WIRE 272 288 176 288
WIRE 272 304 272 288
WIRE 496 320 352 320
WIRE 752 320 752 288
WIRE 752 320 592 320
WIRE 752 336 752 320
WIRE 496 352 448 352
WIRE 624 352 592 352
WIRE -416 368 -416 48
WIRE -256 368 -416 368
WIRE -32 368 -160 368
WIRE -256 400 -336 400
WIRE -112 400 -160 400
WIRE 448 400 448 352
WIRE 272 416 272 384
WIRE -336 448 -336 400
WIRE 752 464 752 416
WIRE 448 496 448 480
WIRE 624 496 624 352
WIRE 624 496 448 496
WIRE 176 512 176 288
WIRE 176 512 128 512
WIRE 448 512 448 496
WIRE -112 528 -112 400
WIRE -112 528 -336 528
WIRE -32 528 -32 368
WIRE 64 528 -32 528
WIRE 352 544 352 320
WIRE 352 544 128 544
WIRE -336 560 -336 528
FLAG -464 160 0
FLAG -464 -80 com_input
IOPIN -464 -80 In
FLAG -128 176 0
FLAG 128 -112 com_output
IOPIN 128 -112 Out
FLAG 272 416 0
FLAG 304 160 compensator_output
IOPIN 304 160 Out
FLAG -336 560 0
FLAG 448 512 0
FLAG 752 464 0
FLAG 752 288 +12V
IOPIN 752 288 Out
FLAG 96 496 +12V
IOPIN 96 496 Out
FLAG 96 560 0
SYMBOL ccm1 -352 48 R90
SYMATTR InstName U1
SYMBOL voltage -464 -16 R0
WINDOW 3 -61 26 Left 2
WINDOW 123 -104 57 Left 2
WINDOW 39 -126 78 Left 2
SYMATTR Value 24
SYMATTR Value2 AC 1
SYMATTR SpiceLine Rser=1p
SYMATTR InstName V1
SYMBOL ind -272 -64 R270
WINDOW 0 32 56 VTop 2
WINDOW 3 5 56 VBottom 2
SYMATTR InstName L1
SYMATTR Value 50µ
SYMBOL cap -144 16 R0
SYMATTR InstName C1
SYMATTR Value 500µ
SYMBOL res -32 0 R0
SYMATTR InstName R1
SYMATTR Value 3
SYMBOL res 112 48 R0
SYMATTR InstName R2
SYMATTR Value 1k
SYMBOL cap 48 192 R0
SYMATTR InstName C2
SYMATTR Value 6.324n
SYMBOL res 160 176 R0
SYMATTR InstName R3
SYMATTR Value 9k
SYMBOL res 48 272 R90
WINDOW 0 0 56 VBottom 2
WINDOW 3 32 56 VTop 2
SYMATTR InstName R4
SYMATTR Value 0
SYMBOL res 256 288 R0
SYMATTR InstName R5
SYMATTR Value 8k
SYMBOL VolDiv -224 384 M0
SYMATTR InstName U2
SYMBOL voltage -336 432 M0
SYMATTR InstName V2
SYMATTR Value 10
SYMBOL OpAmps\\LT6201 96 528 M0
SYMATTR InstName U3
SYMBOL VolDiv 528 336 M0
SYMATTR InstName U4
SYMBOL voltage 448 384 M0
SYMATTR InstName V3
SYMATTR Value 2.4
SYMBOL voltage 752 320 R0
SYMATTR InstName V4
SYMATTR Value 12
TEXT -200 -352 Left 4 ;Buck Converter with Lead compensator
