****************************************************************
* Subcircuit: VolDiv
* Application: Voltage Divider
****************************************************************
* Nodes:
* 1: Input Voltage.
* 2: Output Voltage.
* 3: factor. (In Voltage as input for it)
* 4: Common GND
****************************************************************
.subckt VolDiv 1 2 3 4
Et 2 4 value={v(1,4)/v(3,4)}
.ends
****************************************************************